<?xml version="1.0" encoding="UTF-8"?>

<!-- This file is the SUMO map for the environment -->

<!-- generated on 2023-07-11 17:35:40 by Eclipse SUMO netedit Version 1.18.0
<configuration xmlns:xsi="http://www.w3.org/2001/XMLSchema-instance" xsi:noNamespaceSchemaLocation="http://sumo.dlr.de/xsd/neteditConfiguration.xsd">

    <input>
        <sumo-net-file value="/home/sam/Documents/EE/Experiment/Map/TKL_2.0.net.xml"/>
    </input>

    <output>
        <output-file value="/home/sam/Documents/EE/Experiment/Map/TKL_2.0.net.xml"/>
    </output>

    <processing>
        <geometry.min-radius.fix.railways value="false"/>
        <geometry.max-grade.fix value="false"/>
        <offset.disable-normalization value="true"/>
        <lefthand value="true"/>
    </processing>

    <junctions>
        <junctions.left-before-right value="false"/>
        <no-turnarounds value="true"/>
        <junctions.corner-detail value="5"/>
        <junctions.limit-turn-speed value="5.50"/>
        <rectangular-lane-cut value="0"/>
    </junctions>

    <pedestrian>
        <walkingareas value="0"/>
    </pedestrian>

</configuration>
-->

<net version="1.16" junctionCornerDetail="5" lefthand="true" limitTurnSpeed="5.50" xmlns:xsi="http://www.w3.org/2001/XMLSchema-instance" xsi:noNamespaceSchemaLocation="http://sumo.dlr.de/xsd/net_file.xsd">

    <location netOffset="-215117.34,-2468065.45" convBoundary="1385.99,833.03,2086.54,1508.89" origBoundary="114.234931,22.294905,114.262198,22.309664" projParameter="+proj=utm +zone=50 +ellps=WGS84 +datum=WGS84 +units=m +no_defs"/>

    <type id="highway.residential" priority="1" numLanes="1" speed="13.89" disallow="tram rail_urban rail rail_electric rail_fast ship" oneway="0"/>
    <type id="highway.secondary" priority="1" numLanes="1" speed="13.89" disallow="tram rail_urban rail rail_electric rail_fast ship" oneway="0"/>
    <type id="highway.service" priority="1" numLanes="1" speed="13.89" allow="pedestrian delivery bicycle" oneway="0"/>
    <type id="highway.tertiary" priority="1" numLanes="1" speed="13.89" disallow="tram rail_urban rail rail_electric rail_fast ship" oneway="0"/>
    <type id="highway.tertiary_link" priority="1" numLanes="1" speed="13.89" disallow="tram rail_urban rail rail_electric rail_fast ship" oneway="0"/>
    <type id="highway.unclassified" priority="1" numLanes="1" speed="13.89" disallow="tram rail_urban rail rail_electric rail_fast ship" oneway="0"/>

    <edge id=":10_0" function="internal">
        <lane id=":10_0_0" index="0" disallow="tram rail_urban rail rail_electric rail_fast ship" speed="8.35" length="7.08" shape="1780.63,1388.48 1782.45,1388.43 1784.15,1388.75 1785.73,1389.44 1787.19,1390.50"/>
    </edge>
    <edge id=":10_1" function="internal">
        <lane id=":10_1_0" index="0" disallow="tram rail_urban rail rail_electric rail_fast ship" speed="13.89" length="7.16" shape="1782.76,1384.29 1783.83,1386.31 1784.60,1387.69 1785.56,1388.93 1787.19,1390.50"/>
        <lane id=":10_1_1" index="1" disallow="tram rail_urban rail rail_electric rail_fast ship" speed="13.89" length="7.16" shape="1785.56,1382.74 1786.48,1384.49 1787.12,1385.69 1787.93,1386.76 1789.32,1388.12"/>
    </edge>
    <edge id=":11_0" function="internal">
        <lane id=":11_0_0" index="0" disallow="tram rail_urban rail rail_electric rail_fast ship" speed="7.01" length="8.16" shape="1774.95,1370.51 1775.68,1372.29 1775.71,1374.12 1775.04,1376.02 1773.67,1377.98"/>
    </edge>
    <edge id=":11_1" function="internal">
        <lane id=":11_1_0" index="0" disallow="tram rail_urban rail rail_electric rail_fast ship" speed="13.89" length="9.41" shape="1774.95,1370.51 1779.62,1378.59"/>
        <lane id=":11_1_1" index="1" disallow="tram rail_urban rail rail_electric rail_fast ship" speed="13.89" length="9.41" shape="1777.67,1368.83 1782.42,1377.04"/>
    </edge>
    <edge id=":14_0" function="internal">
        <lane id=":14_0_0" index="0" disallow="tram rail_urban rail rail_electric rail_fast ship" speed="13.89" length="13.61" shape="1780.92,1204.72 1778.95,1208.24 1777.69,1210.71 1776.70,1213.28 1775.56,1217.14"/>
        <lane id=":14_0_1" index="1" disallow="tram rail_urban rail rail_electric rail_fast ship" speed="13.89" length="13.61" shape="1780.92,1204.72 1779.44,1208.37 1779.23,1211.14 1779.30,1214.02 1778.64,1218.01"/>
    </edge>
    <edge id=":14_2" function="internal">
        <lane id=":14_2_0" index="0" disallow="tram rail_urban rail rail_electric rail_fast ship" speed="7.15" length="11.03" shape="1783.72,1206.28 1781.98,1209.92 1781.24,1212.81 1781.49,1214.94 1782.75,1216.33"/>
        <lane id=":14_2_1" index="1" disallow="tram rail_urban rail rail_electric rail_fast ship" speed="6.26" length="8.21" shape="1783.72,1206.28 1782.66,1208.70 1782.41,1210.72 1782.97,1212.33 1784.34,1213.55"/>
    </edge>
    <edge id=":14_4" function="internal">
        <lane id=":14_4_0" index="0" disallow="tram rail_urban rail rail_electric rail_fast ship" speed="11.74" length="11.66" shape="1773.78,1206.08 1775.34,1209.16 1776.19,1211.46 1776.27,1213.84 1775.56,1217.14"/>
        <lane id=":14_4_1" index="1" disallow="tram rail_urban rail rail_electric rail_fast ship" speed="12.61" length="13.52" shape="1773.78,1206.08 1776.01,1209.50 1777.95,1211.87 1779.02,1214.34 1778.64,1218.01"/>
    </edge>
    <edge id=":14_6" function="internal">
        <lane id=":14_6_0" index="0" disallow="tram rail_urban rail rail_electric rail_fast ship" speed="13.89" length="12.87" shape="1776.63,1204.64 1778.04,1208.48 1778.66,1211.46 1779.80,1213.94 1782.75,1216.33"/>
        <lane id=":14_6_1" index="1" disallow="tram rail_urban rail rail_electric rail_fast ship" speed="13.89" length="12.87" shape="1776.63,1204.64 1778.24,1207.84 1779.57,1209.97 1781.35,1211.66 1784.34,1213.55"/>
    </edge>
    <edge id=":15_0" function="internal">
        <lane id=":15_0_0" index="0" disallow="tram rail_urban rail rail_electric rail_fast ship" speed="11.66" length="11.53" shape="1799.39,1231.86 1802.28,1230.09 1804.50,1229.19 1806.87,1229.03 1810.21,1229.48"/>
        <lane id=":15_0_1" index="1" disallow="tram rail_urban rail rail_electric rail_fast ship" speed="12.48" length="13.26" shape="1799.39,1231.86 1802.53,1229.40 1804.73,1227.40 1807.11,1226.25 1810.76,1226.33"/>
    </edge>
    <edge id=":15_2" function="internal">
        <lane id=":15_2_0" index="0" disallow="tram rail_urban rail rail_electric rail_fast ship" speed="13.89" length="12.92" shape="1797.66,1229.16 1801.28,1227.38 1804.09,1226.50 1806.51,1225.25 1808.97,1222.32"/>
        <lane id=":15_2_1" index="1" disallow="tram rail_urban rail rail_electric rail_fast ship" speed="13.89" length="12.92" shape="1797.66,1229.16 1800.70,1227.17 1802.67,1225.59 1804.28,1223.66 1806.26,1220.62"/>
    </edge>
    <edge id=":15_4" function="internal">
        <lane id=":15_4_0" index="0" disallow="tram rail_urban rail rail_electric rail_fast ship" speed="13.89" length="13.58" shape="1797.55,1224.81 1801.06,1226.79 1803.58,1227.97 1806.25,1228.73 1810.21,1229.48"/>
        <lane id=":15_4_1" index="1" disallow="tram rail_urban rail rail_electric rail_fast ship" speed="13.89" length="13.58" shape="1797.55,1224.81 1801.13,1226.28 1803.86,1226.38 1806.75,1226.08 1810.76,1226.33"/>
    </edge>
    <edge id=":15_6" function="internal">
        <lane id=":15_6_0" index="0" disallow="tram rail_urban rail rail_electric rail_fast ship" speed="7.18" length="10.88" shape="1799.14,1222.03 1802.52,1223.64 1805.28,1224.22 1807.43,1223.78 1808.97,1222.32"/>
        <lane id=":15_6_1" index="1" disallow="tram rail_urban rail rail_electric rail_fast ship" speed="6.32" length="8.20" shape="1799.14,1222.03 1801.31,1222.93 1803.21,1223.00 1804.87,1222.23 1806.26,1220.62"/>
    </edge>
    <edge id=":16_0" function="internal">
        <lane id=":16_0_0" index="0" disallow="tram rail_urban rail rail_electric rail_fast ship" speed="7.58" length="10.76" shape="1798.42,1180.98 1795.86,1182.57 1793.37,1183.15 1790.96,1182.73 1788.62,1181.30"/>
        <lane id=":16_0_1" index="1" disallow="tram rail_urban rail rail_electric rail_fast ship" speed="8.65" length="14.26" shape="1798.42,1180.98 1794.71,1183.43 1791.32,1184.56 1788.24,1184.36 1785.48,1182.84"/>
    </edge>
    <edge id=":16_2" function="internal">
        <lane id=":16_2_0" index="0" disallow="tram rail_urban rail rail_electric rail_fast ship" speed="13.89" length="16.23" shape="1800.42,1183.47 1796.22,1186.19 1792.93,1187.66 1790.09,1189.52 1787.24,1193.38"/>
        <lane id=":16_2_1" index="1" disallow="tram rail_urban rail rail_electric rail_fast ship" speed="13.89" length="16.23" shape="1800.42,1183.47 1796.79,1186.36 1794.38,1188.49 1792.40,1190.98 1790.04,1194.94"/>
    </edge>
    <edge id=":16_4" function="internal">
        <lane id=":16_4_0" index="0" disallow="tram rail_urban rail rail_electric rail_fast ship" speed="13.89" length="15.78" shape="1801.51,1190.11 1797.25,1188.30 1794.56,1186.57 1792.13,1184.41 1788.62,1181.30"/>
        <lane id=":16_4_1" index="1" disallow="tram rail_urban rail rail_electric rail_fast ship" speed="13.89" length="17.79" shape="1801.51,1190.11 1796.47,1188.48 1792.93,1187.45 1789.67,1185.93 1785.48,1182.84"/>
    </edge>
    <edge id=":16_6" function="internal">
        <lane id=":16_6_0" index="0" disallow="tram rail_urban rail rail_electric rail_fast ship" speed="8.46" length="14.11" shape="1800.40,1193.11 1795.53,1191.63 1791.72,1191.18 1788.95,1191.77 1787.24,1193.38"/>
        <lane id=":16_6_1" index="1" disallow="tram rail_urban rail rail_electric rail_fast ship" speed="7.70" length="11.53" shape="1800.40,1193.11 1796.85,1192.15 1793.93,1192.14 1791.66,1193.06 1790.04,1194.94"/>
    </edge>
    <edge id=":17_0" function="internal">
        <lane id=":17_0_0" index="0" disallow="tram rail_urban rail rail_electric rail_fast ship" speed="11.88" length="13.98" shape="1824.25,1210.12 1824.17,1208.45 1824.84,1205.70 1826.27,1201.86 1828.45,1196.95"/>
        <lane id=":17_0_1" index="1" disallow="tram rail_urban rail rail_electric rail_fast ship" speed="12.29" length="15.00" shape="1824.25,1210.12 1823.37,1206.85 1823.30,1203.34 1824.03,1199.58 1825.56,1195.59"/>
    </edge>
    <edge id=":17_2" function="internal">
        <lane id=":17_2_0" index="0" disallow="tram rail_urban rail rail_electric rail_fast ship" speed="12.84" length="16.60" shape="1821.29,1211.33 1818.52,1204.22 1816.83,1199.26 1816.25,1196.43 1816.75,1195.75"/>
        <lane id=":17_2_1" index="1" disallow="tram rail_urban rail rail_electric rail_fast ship" speed="11.74" length="13.81" shape="1821.29,1211.33 1820.38,1209.02 1818.67,1204.82 1816.86,1200.73 1815.64,1198.75"/>
    </edge>
    <edge id=":17_4" function="internal">
        <lane id=":17_4_0" index="0" disallow="tram rail_urban rail rail_electric rail_fast ship" speed="13.89" length="19.59" shape="1815.48,1211.91 1819.13,1207.29 1822.35,1204.64 1825.39,1201.89 1828.45,1196.95"/>
        <lane id=":17_4_1" index="1" disallow="tram rail_urban rail rail_electric rail_fast ship" speed="13.89" length="19.59" shape="1815.48,1211.91 1818.62,1207.15 1820.89,1203.95 1822.98,1200.66 1825.56,1195.59"/>
    </edge>
    <edge id=":17_6" function="internal">
        <lane id=":17_6_0" index="0" disallow="tram rail_urban rail rail_electric rail_fast ship" speed="7.95" length="6.79" shape="1812.76,1210.21 1816.05,1204.45 1816.11,1204.31"/>
        <lane id=":17_6_1" index="1" disallow="tram rail_urban rail rail_electric rail_fast ship" speed="7.14" length="6.99" shape="1812.76,1210.21 1815.33,1205.68 1815.97,1204.02"/>
    </edge>
    <edge id=":17_8" function="internal">
        <lane id=":17_8_0" index="0" disallow="tram rail_urban rail rail_electric rail_fast ship" speed="7.95" length="9.38" shape="1816.11,1204.31 1817.80,1200.13 1818.04,1197.22 1816.75,1195.75"/>
    </edge>
    <edge id=":17_9" function="internal">
        <lane id=":17_9_0" index="0" disallow="tram rail_urban rail rail_electric rail_fast ship" speed="7.14" length="5.85" shape="1815.97,1204.02 1816.66,1202.26 1816.76,1199.95 1815.64,1198.75"/>
    </edge>
    <edge id=":18_0" function="internal">
        <lane id=":18_0_0" index="0" disallow="tram rail_urban rail rail_electric rail_fast ship" speed="12.84" length="15.10" shape="1782.86,1169.65 1779.36,1169.70 1776.14,1169.17 1772.83,1167.68 1769.07,1164.85"/>
    </edge>
    <edge id=":18_1" function="internal">
        <lane id=":18_1_0" index="0" disallow="tram rail_urban rail rail_electric rail_fast ship" speed="13.89" length="15.14" shape="1780.61,1174.58 1769.07,1164.85"/>
        <lane id=":18_1_1" index="1" disallow="tram rail_urban rail rail_electric rail_fast ship" speed="13.89" length="15.14" shape="1778.55,1177.03 1766.95,1167.25"/>
    </edge>
    <edge id=":19_0" function="internal">
        <lane id=":19_0_0" index="0" disallow="tram rail_urban rail rail_electric rail_fast ship" speed="13.89" length="18.84" shape="1824.92,1153.22 1820.81,1157.65 1816.79,1160.28 1812.97,1161.94 1809.46,1163.47"/>
    </edge>
    <edge id=":19_1" function="internal">
        <lane id=":19_1_0" index="0" disallow="tram rail_urban rail rail_electric rail_fast ship" speed="13.89" length="19.01" shape="1824.92,1153.22 1821.48,1157.61 1818.87,1160.40 1816.10,1163.06 1812.19,1167.05"/>
        <lane id=":19_1_1" index="1" disallow="tram rail_urban rail rail_electric rail_fast ship" speed="13.89" length="19.01" shape="1827.49,1155.12 1823.99,1159.60 1821.33,1162.44 1818.51,1165.16 1814.53,1169.24"/>
    </edge>
    <edge id=":20_0" function="internal">
        <lane id=":20_0_0" index="0" disallow="tram rail_urban rail rail_electric rail_fast ship" speed="13.89" length="15.40" shape="1881.73,1052.90 1879.55,1056.95 1878.17,1059.80 1877.22,1062.80 1876.32,1067.29"/>
        <lane id=":20_0_1" index="1" disallow="tram rail_urban rail rail_electric rail_fast ship" speed="13.89" length="15.40" shape="1881.73,1052.90 1880.06,1057.00 1879.76,1060.08 1879.88,1063.31 1879.48,1067.85"/>
    </edge>
    <edge id=":20_2" function="internal">
        <lane id=":20_2_0" index="0" disallow="tram rail_urban rail rail_electric rail_fast ship" speed="7.73" length="12.68" shape="1884.56,1054.40 1882.62,1058.64 1881.79,1061.99 1882.05,1064.45 1883.42,1066.04"/>
        <lane id=":20_2_1" index="1" disallow="tram rail_urban rail rail_electric rail_fast ship" speed="6.90" length="9.91" shape="1884.56,1054.40 1883.29,1057.40 1882.95,1059.88 1883.54,1061.85 1885.06,1063.29"/>
    </edge>
    <edge id=":20_4" function="internal">
        <lane id=":20_4_0" index="0" disallow="tram rail_urban rail rail_electric rail_fast ship" speed="13.89" length="14.78" shape="1874.59,1053.59 1875.96,1057.54 1876.73,1060.34 1876.87,1063.20 1876.32,1067.29"/>
        <lane id=":20_4_1" index="1" disallow="tram rail_urban rail rail_electric rail_fast ship" speed="13.89" length="14.78" shape="1874.59,1053.59 1876.55,1057.79 1878.42,1060.61 1879.60,1063.49 1879.48,1067.85"/>
    </edge>
    <edge id=":20_6" function="internal">
        <lane id=":20_6_0" index="0" disallow="tram rail_urban rail rail_electric rail_fast ship" speed="13.89" length="15.34" shape="1877.62,1052.56 1878.63,1057.07 1879.04,1060.50 1880.18,1063.33 1883.42,1066.04"/>
        <lane id=":20_6_1" index="1" disallow="tram rail_urban rail rail_electric rail_fast ship" speed="13.10" length="13.54" shape="1877.62,1052.56 1878.87,1056.38 1880.02,1058.99 1881.82,1061.07 1885.06,1063.29"/>
    </edge>
    <edge id=":21_0" function="internal">
        <lane id=":21_0_0" index="0" disallow="tram rail_urban rail rail_electric rail_fast ship" speed="9.53" length="9.63" shape="1899.26,1080.50 1901.03,1078.88 1903.05,1077.74 1905.33,1077.09 1907.87,1076.92"/>
        <lane id=":21_0_1" index="1" disallow="tram rail_urban rail rail_electric rail_fast ship" speed="10.25" length="11.22" shape="1899.26,1080.50 1902.07,1077.51 1904.45,1075.38 1906.41,1074.11 1907.95,1073.72"/>
        <lane id=":21_0_2" index="2" disallow="tram rail_urban rail rail_electric rail_fast ship" speed="11.13" length="13.32" shape="1899.26,1080.50 1900.77,1078.62 1903.52,1075.22 1906.34,1071.96 1908.04,1070.52"/>
    </edge>
    <edge id=":21_3" function="internal">
        <lane id=":21_3_0" index="0" disallow="tram rail_urban rail rail_electric rail_fast ship" speed="13.89" length="15.23" shape="1896.86,1078.38 1899.77,1075.00 1901.66,1072.59 1903.43,1070.09 1905.98,1066.42"/>
        <lane id=":21_3_1" index="1" disallow="tram rail_urban rail rail_electric rail_fast ship" speed="13.89" length="15.23" shape="1896.86,1078.38 1899.39,1074.69 1900.36,1071.67 1901.20,1068.56 1903.36,1064.58"/>
    </edge>
    <edge id=":21_5" function="internal">
        <lane id=":21_5_0" index="0" disallow="tram rail_urban rail rail_electric rail_fast ship" speed="13.89" length="14.80" shape="1894.08,1072.38 1897.84,1074.63 1900.59,1075.97 1903.53,1076.65 1907.87,1076.92"/>
    </edge>
    <edge id=":21_6" function="internal">
        <lane id=":21_6_0" index="0" disallow="tram rail_urban rail rail_electric rail_fast ship" speed="8.35" length="14.66" shape="1894.08,1072.38 1896.86,1073.22 1899.77,1072.51 1902.81,1070.24 1905.98,1066.42"/>
    </edge>
    <edge id=":21_7" function="internal">
        <lane id=":21_7_0" index="0" disallow="tram rail_urban rail rail_electric rail_fast ship" speed="13.89" length="12.92" shape="1895.71,1069.63 1899.06,1071.64 1901.49,1072.85 1904.10,1073.47 1907.95,1073.72"/>
        <lane id=":21_7_1" index="1" disallow="tram rail_urban rail rail_electric rail_fast ship" speed="13.89" length="12.92" shape="1895.71,1069.63 1899.01,1071.08 1901.55,1071.20 1904.25,1070.75 1908.04,1070.52"/>
    </edge>
    <edge id=":22_0" function="internal">
        <lane id=":22_0_0" index="0" disallow="tram rail_urban rail rail_electric rail_fast ship" speed="13.89" length="19.80" shape="1927.72,1055.89 1922.83,1052.51 1919.76,1049.82 1916.82,1046.96 1912.32,1043.07"/>
        <lane id=":22_0_1" index="1" disallow="tram rail_urban rail rail_electric rail_fast ship" speed="13.89" length="19.80" shape="1925.24,1058.11 1920.50,1054.82 1917.54,1052.18 1914.70,1049.37 1910.32,1045.57"/>
    </edge>
    <edge id=":22_2" function="internal">
        <lane id=":22_2_0" index="0" disallow="tram rail_urban rail rail_electric rail_fast ship" speed="8.61" length="15.81" shape="1912.47,1057.19 1914.83,1052.95 1915.58,1049.19 1914.75,1045.89 1912.32,1043.07"/>
        <lane id=":22_2_1" index="1" disallow="tram rail_urban rail rail_electric rail_fast ship" speed="7.24" length="10.90" shape="1909.86,1055.35 1911.60,1052.30 1912.26,1049.66 1911.83,1047.41 1910.32,1045.57"/>
    </edge>
    <edge id=":23_0" function="internal">
        <lane id=":23_0_0" index="0" disallow="tram rail_urban rail rail_electric rail_fast ship" speed="13.89" length="15.30" shape="1902.17,1034.94 1898.95,1031.73 1897.31,1028.99 1895.68,1026.22 1892.52,1022.94"/>
        <lane id=":23_0_1" index="1" disallow="tram rail_urban rail rail_electric rail_fast ship" speed="13.89" length="15.30" shape="1902.17,1034.94 1890.47,1025.40"/>
    </edge>
    <edge id=":23_2" function="internal">
        <lane id=":23_2_0" index="0" disallow="tram rail_urban rail rail_electric rail_fast ship" speed="6.99" length="12.09" shape="1900.17,1037.44 1896.84,1035.29 1894.02,1034.58 1891.72,1035.31 1889.93,1037.47"/>
        <lane id=":23_2_1" index="1" disallow="tram rail_urban rail rail_electric rail_fast ship" speed="6.14" length="9.06" shape="1900.17,1037.44 1897.97,1036.15 1896.00,1035.97 1894.26,1036.91 1892.75,1038.97"/>
    </edge>
    <edge id=":26_0" function="internal">
        <lane id=":26_0_0" index="0" allow="pedestrian bus delivery bicycle" speed="5.53" length="9.23" shape="1724.93,1135.71 1722.58,1136.63 1721.71,1138.00 1722.33,1139.85 1724.44,1142.16"/>
    </edge>
    <edge id=":26_1" function="internal">
        <lane id=":26_1_0" index="0" disallow="tram rail_urban rail rail_electric rail_fast ship" speed="13.89" length="11.25" shape="1713.86,1137.18 1722.31,1144.54"/>
        <lane id=":26_1_1" index="1" disallow="tram rail_urban rail rail_electric rail_fast ship" speed="13.89" length="11.25" shape="1715.93,1134.74 1724.44,1142.16"/>
    </edge>
    <edge id=":27_0" function="internal">
        <lane id=":27_0_0" index="0" disallow="tram rail_urban rail rail_electric rail_fast ship" speed="13.89" length="8.67" shape="1734.52,1134.25 1727.71,1128.74"/>
        <lane id=":27_0_1" index="1" disallow="tram rail_urban rail rail_electric rail_fast ship" speed="13.89" length="8.67" shape="1732.40,1136.65 1725.73,1131.25"/>
    </edge>
    <edge id=":27_2" function="internal">
        <lane id=":27_2_0" index="0" allow="pedestrian bus delivery bicycle" speed="8.12" length="7.60" shape="1732.40,1136.65 1731.08,1135.81 1729.42,1135.37 1727.44,1135.32 1725.13,1135.67"/>
    </edge>
    <edge id=":28_0" function="internal">
        <lane id=":28_0_0" index="0" disallow="tram rail_urban rail rail_electric rail_fast ship" speed="6.63" length="9.36" shape="1649.44,1090.92 1651.39,1089.13 1653.40,1088.35 1655.47,1088.60 1657.60,1089.86"/>
    </edge>
    <edge id=":28_1" function="internal">
        <lane id=":28_1_0" index="0" disallow="tram rail_urban rail rail_electric rail_fast ship" speed="6.27" length="9.04" shape="1645.85,1081.25 1647.74,1082.91 1648.55,1084.74 1648.30,1086.73 1646.98,1088.88"/>
    </edge>
    <edge id=":28_2" function="internal">
        <lane id=":28_2_0" index="0" disallow="tram rail_urban rail rail_electric rail_fast ship" speed="13.89" length="14.76" shape="1645.85,1081.25 1649.46,1083.63 1651.90,1085.32 1654.25,1087.13 1657.60,1089.86"/>
        <lane id=":28_2_1" index="1" disallow="tram rail_urban rail rail_electric rail_fast ship" speed="13.89" length="14.76" shape="1647.60,1078.57 1651.30,1081.01 1653.80,1082.74 1656.20,1084.59 1659.63,1087.39"/>
    </edge>
    <edge id=":29_0" function="internal">
        <lane id=":29_0_0" index="0" disallow="tram rail_urban rail rail_electric rail_fast ship" speed="13.89" length="8.95" shape="1636.57,1074.11 1643.64,1079.80"/>
        <lane id=":29_0_1" index="1" disallow="tram rail_urban rail rail_electric rail_fast ship" speed="13.89" length="8.95" shape="1638.54,1071.59 1645.40,1077.12"/>
    </edge>
    <edge id=":29_2" function="internal">
        <lane id=":29_2_0" index="0" allow="pedestrian delivery bicycle" speed="8.92" length="8.33" shape="1642.13,1069.71 1642.59,1072.32 1643.29,1074.42 1644.23,1076.02 1645.40,1077.12"/>
    </edge>
    <edge id=":30_0" function="internal">
        <lane id=":30_0_0" index="0" disallow="tram rail_urban rail rail_electric rail_fast ship" speed="13.89" length="7.12" shape="1648.06,1066.01 1646.38,1064.65 1645.24,1063.72 1644.05,1062.84 1642.26,1061.64"/>
        <lane id=":30_0_1" index="1" disallow="tram rail_urban rail rail_electric rail_fast ship" speed="13.89" length="7.12" shape="1646.08,1068.52 1644.47,1067.22 1643.37,1066.32 1642.24,1065.48 1640.52,1064.32"/>
    </edge>
    <edge id=":30_2" function="internal">
        <lane id=":30_2_0" index="0" allow="pedestrian delivery bicycle" speed="4.61" length="6.43" shape="1646.08,1068.52 1644.14,1067.25 1642.83,1066.99 1642.16,1067.74 1642.11,1069.51"/>
    </edge>
    <edge id=":33_0" function="internal">
        <lane id=":33_0_0" index="0" disallow="tram rail_urban rail rail_electric rail_fast ship" speed="13.89" length="10.13" shape="1389.35,1009.91 1388.91,1012.85 1388.23,1014.81 1387.46,1016.76 1386.74,1019.66"/>
    </edge>
    <edge id=":33_1" function="internal">
        <lane id=":33_1_0" index="0" disallow="tram rail_urban rail rail_electric rail_fast ship" speed="9.66" length="8.62" shape="1389.89,1020.21 1390.54,1018.05 1391.53,1016.81 1392.98,1015.83 1394.97,1014.51"/>
        <lane id=":33_1_1" index="1" disallow="tram rail_urban rail rail_electric rail_fast ship" speed="10.37" length="8.62" shape="1389.89,1020.21 1390.21,1017.45 1390.43,1015.44 1391.18,1013.74 1393.06,1011.94"/>
    </edge>
    <edge id=":34_0" function="internal">
        <lane id=":34_0_0" index="0" disallow="tram rail_urban rail rail_electric rail_fast ship" speed="13.89" length="13.87" shape="1406.93,1009.37 1410.89,1008.28 1413.75,1008.24 1416.68,1008.47 1420.85,1008.20"/>
        <lane id=":34_0_1" index="1" disallow="tram rail_urban rail rail_electric rail_fast ship" speed="13.89" length="13.87" shape="1406.87,1005.97 1410.71,1004.94 1413.48,1004.97 1416.33,1005.27 1420.37,1005.03"/>
    </edge>
    <edge id=":34_2" function="internal">
        <lane id=":34_2_0" index="0" disallow="tram rail_urban rail rail_electric rail_fast ship" speed="10.74" length="13.42" shape="1408.34,1001.44 1411.67,1004.72 1414.87,1006.94 1417.93,1008.10 1420.85,1008.20"/>
        <lane id=":34_2_1" index="1" disallow="tram rail_urban rail rail_electric rail_fast ship" speed="9.75" length="13.42" shape="1410.40,998.95 1413.27,1001.84 1415.88,1003.82 1418.25,1004.88 1420.37,1005.03"/>
    </edge>
    <edge id=":35_0" function="internal">
        <lane id=":35_0_0" index="0" disallow="tram rail_urban rail rail_electric rail_fast ship" speed="10.79" length="8.23" shape="1438.59,1001.20 1440.66,1000.11 1442.29,999.90 1444.06,1000.16 1446.50,1000.47"/>
        <lane id=":35_0_1" index="1" disallow="tram rail_urban rail rail_electric rail_fast ship" speed="11.48" length="9.36" shape="1438.59,1001.20 1440.80,999.47 1442.37,998.17 1444.08,997.40 1446.72,997.28"/>
    </edge>
    <edge id=":35_2" function="internal">
        <lane id=":35_2_0" index="0" disallow="tram rail_urban rail rail_electric rail_fast ship" speed="13.89" length="9.16" shape="1436.79,998.55 1439.34,997.20 1441.31,996.52 1443.02,995.59 1444.75,993.47"/>
        <lane id=":35_2_1" index="1" disallow="tram rail_urban rail rail_electric rail_fast ship" speed="13.89" length="9.16" shape="1436.79,998.55 1438.79,997.00 1439.90,995.64 1440.76,994.05 1442.02,991.80"/>
    </edge>
    <edge id=":37_0" function="internal">
        <lane id=":37_0_0" index="0" disallow="tram rail_urban rail rail_electric rail_fast ship" speed="7.62" length="7.34" shape="1453.66,981.12 1451.65,980.12 1450.14,978.97 1449.13,977.66 1448.62,976.21"/>
        <lane id=":37_0_1" index="1" disallow="tram rail_urban rail rail_electric rail_fast ship" speed="9.04" length="10.58" shape="1452.45,984.08 1449.70,982.68 1447.62,980.99 1446.21,979.01 1445.46,976.74"/>
    </edge>
    <edge id=":37_2" function="internal">
        <lane id=":37_2_0" index="0" disallow="tram rail_urban rail rail_electric rail_fast ship" speed="13.89" length="9.68" shape="1447.62,986.41 1448.51,983.45 1448.98,981.36 1449.03,979.24 1448.62,976.21"/>
        <lane id=":37_2_1" index="1" disallow="tram rail_urban rail rail_electric rail_fast ship" speed="13.89" length="9.68" shape="1444.55,985.51 1445.32,982.96 1445.75,981.17 1445.81,979.35 1445.46,976.74"/>
    </edge>
    <edge id=":38_0" function="internal">
        <lane id=":38_0_0" index="0" disallow="tram rail_urban rail rail_electric rail_fast ship" speed="9.08" length="7.35" shape="1445.29,964.00 1444.56,962.05 1444.58,960.58 1445.09,959.06 1445.86,957.00"/>
        <lane id=":38_0_1" index="1" disallow="tram rail_urban rail rail_electric rail_fast ship" speed="9.88" length="8.78" shape="1445.29,964.00 1443.93,961.73 1442.87,960.09 1442.40,958.41 1442.82,956.01"/>
    </edge>
    <edge id=":38_2" function="internal">
        <lane id=":38_2_0" index="0" disallow="tram rail_urban rail rail_electric rail_fast ship" speed="13.89" length="8.49" shape="1442.43,965.43 1441.50,962.87 1441.12,960.90 1440.42,959.22 1438.54,957.51"/>
        <lane id=":38_2_1" index="1" disallow="tram rail_urban rail rail_electric rail_fast ship" speed="13.11" length="8.49" shape="1442.43,965.43 1441.27,963.45 1440.16,962.31 1438.77,961.41 1436.77,960.17"/>
    </edge>
    <edge id=":40_0" function="internal">
        <lane id=":40_0_0" index="0" disallow="tram rail_urban rail rail_electric rail_fast ship" speed="13.89" length="10.38" shape="1419.67,948.45 1417.95,950.88 1416.87,952.64 1415.64,954.25 1413.45,956.20"/>
        <lane id=":40_0_1" index="1" disallow="tram rail_urban rail rail_electric rail_fast ship" speed="13.89" length="10.38" shape="1422.18,950.44 1420.31,953.04 1419.14,954.92 1417.79,956.63 1415.42,958.73"/>
    </edge>
    <edge id=":40_2" function="internal">
        <lane id=":40_2_0" index="0" disallow="tram rail_urban rail rail_electric rail_fast ship" speed="12.71" length="10.09" shape="1424.02,954.20 1420.70,954.07 1418.31,953.98 1416.14,954.50 1413.45,956.20"/>
        <lane id=":40_2_1" index="1" disallow="tram rail_urban rail rail_electric rail_fast ship" speed="11.50" length="10.09" shape="1424.05,957.40 1421.35,957.25 1419.39,957.07 1417.61,957.39 1415.42,958.73"/>
    </edge>
    <edge id=":41_0" function="internal">
        <lane id=":41_0_0" index="0" disallow="tram rail_urban rail rail_electric rail_fast ship" speed="13.89" length="11.33" shape="1399.56,983.21 1399.16,986.58 1398.43,988.90 1397.27,990.97 1395.59,993.61"/>
    </edge>
    <edge id=":41_1" function="internal">
        <lane id=":41_1_0" index="0" disallow="tram rail_urban rail rail_electric rail_fast ship" speed="13.89" length="10.55" shape="1402.76,983.41 1402.22,986.66 1401.51,988.93 1401.23,991.14 1401.98,994.19"/>
        <lane id=":41_1_1" index="1" disallow="tram rail_urban rail rail_electric rail_fast ship" speed="10.44" length="10.55" shape="1402.76,983.41 1402.75,986.45 1403.13,989.06 1403.90,991.23 1405.07,992.97"/>
    </edge>
    <edge id=":42_0" function="internal">
        <lane id=":42_0_0" index="0" disallow="tram rail_urban rail rail_electric rail_fast ship" speed="6.67" length="9.02" shape="1441.23,1176.73 1438.84,1177.40 1436.77,1177.19 1435.03,1176.11 1433.62,1174.16"/>
    </edge>
    <edge id=":42_1" function="internal">